LAMMPS (27 Jun 2024)
include lmp.in
#smiles: Cc1c(C)c(C)c(C)c(C)c1C
units real
atom_style full

dimension 3
boundary p p p  #p p m

bond_style hybrid harmonic
angle_style hybrid harmonic
dihedral_style hybrid charmm
# special_bonds amber # same as special_bonds lj 0.0 0.0 0.5000 coul 0.0 0.0 0.83333
special_bonds amber lj 0.0 0.0 0.50000 coul 0.0 0.0 0.83333 angle yes dihedral no
box tilt large

The 'box' command has been removed and will be ignored

read_data lmp.dat
Reading data file ...
  triclinic box = (0 0 0) to (30.8471 17.6224 57.5148) with tilt (0.0233 -6.027 -0.9687)
  reading atoms ...
  3840 atoms
  reading velocities ...
  3840 velocities
  scanning bonds ...
  scanning angles ...
  scanning dihedrals ...
  triclinic box = (0 0 0) to (30.8471 17.6224 57.5148) with tilt (0.0233 -6.027 -0.9687)
  reading bonds ...
  3840 bonds
  reading angles ...
  6912 angles
  reading dihedrals ...
  3840 dihedrals
Finding 1-2 1-3 1-4 neighbors ...
     4 = max # of 1-2 neighbors
     7 = max # of 1-3 neighbors
    17 = max # of 1-4 neighbors
    19 = max # of special neighbors

neighbor 2.0 multi
neigh_modify every 2 delay 4 check yes
#neigh_modify every 2 delay 10

pair_style lj/cut/coul/long 9.0 9.0
pair_modify mix arithmetic shift no tail yes
kspace_style pppm 0.0005
kspace_modify gewald 0.29202898720871845 mesh 32 32 60 order 6

pair_coeff 1 1   0.1094000   3.3996695
pair_coeff 2 2   0.0860000   3.3996695
pair_coeff 3 3   0.0157000   2.6495328

#pair_modify mix arithmetic
thermo_style custom step temp vol press etotal pe ke epair ecoul elong evdwl ebond eangle edihed eimp emol etail #    cella cellb cellc cellalpha cellbeta cellgamma density pxx pyy pzz pxy pxy pyz
thermo_modify lost ignore flush yes

#compute peatom all pe/atom
#dump 1 all custom 1 dump.lammpstrj id type q x y z fx fy fz c_peatom element
#dump_modify 1 sort id pad 9 element C C H

#minimize 1e-5 1e-5 100 100
#run 0

variable temperature equal      350.000
variable endtemperature equal      390.000
variable patm equal        1.000
variable dt equal        1.000
variable trelax1 equal   1000000
variable trelax2 equal   10000000
variable thermo equal	5000
variable ele_string string "C C H"
replicate  6 5 3
Replication is creating a 6x5x3 = 90 times larger system...
  triclinic box = (0 0 0) to (185.0826 88.112 172.5444) with tilt (0.1165 -18.081 -2.9061)
  345600 atoms
  345600 bonds
  622080 angles
  345600 dihedrals
Finding 1-2 1-3 1-4 neighbors ...
     4 = max # of 1-2 neighbors
     7 = max # of 1-3 neighbors
    17 = max # of 1-4 neighbors
    19 = max # of special neighbors
  replicate CPU = 0.718 seconds

variable tdamp      equal 100*1
variable pdamp      equal 100*1
variable pe         equal pe
variable temp       equal temp

# for units real, pressure is in [atmospheres] = 0.101325 [MPa]
variable sxx        equal "-pxx*0.101325"
variable syy        equal "-pyy*0.101325"
variable szz        equal "-pzz*0.101325"
variable sxz        equal "-pxz*0.101325"
variable syz        equal "-pyz*0.101325"
variable sxy        equal "-pxy*0.101325"
variable    xcm     equal xcm(all,x)
variable    ycm     equal xcm(all,y)
variable    zcm     equal xcm(all,z)
variable    xhi     equal xhi
variable    yhi     equal yhi
variable    zhi     equal zhi
variable    xlo     equal xlo
variable    ylo     equal ylo
variable    zlo     equal zlo
variable    xy      equal xy
variable    xz      equal xz
variable    yz      equal yz

thermo          5000
neighbor        1.0    bin
neigh_modify    every 1 delay 5 check yes
thermo_style    custom step temp ke pe etotal lx ly lz xy xz yz pxx pyy pzz pxy pxz pyz press vol
thermo_modify   lost warn norm yes
timestep 	    1

#======================== Energy minimization
min_style       cg
minimize        1.0e-25 1.0e-25 100000 1000000

CITE-CITE-CITE-CITE-CITE-CITE-CITE-CITE-CITE-CITE-CITE-CITE-CITE

Your simulation uses code contributions which should be cited:

- Type Label Framework: https://doi.org/10.1021/acs.jpcb.3c08419

@Article{Gissinger24,
 author = {Jacob R. Gissinger, Ilia Nikiforov, Yaser Afshar, Brendon Waters, Moon-ki Choi, Daniel S. Karls, Alexander Stukowski, Wonpil Im, Hendrik Heinz, Axel Kohlmeyer, and Ellad B. Tadmor},
 title = {Type Label Framework for Bonded Force Fields in LAMMPS},
 journal = {J. Phys. Chem. B},
 year =    2024,
 volume =  128,
 number =  13,
 pages =   {3282â€“-3297}
}

- neighbor multi command: doi:10.1016/j.cpc.2008.03.005, doi:10.1007/s40571-020-00361-2

@Article{Intveld08,
 author =  {in 't Veld, P. J. and S. J.~Plimpton and G. S. Grest},
 title =   {Accurate and Efficient Methods for Modeling Colloidal
            Mixtures in an Explicit Solvent using Molecular Dynamics},
 journal = {Comput.\ Phys.\ Commut.},
 year =    2008,
 volume =  179,
 pages =   {320--329}
}

@article{Shire2020,
 author = {Shire, Tom and Hanley, Kevin J. and Stratford, Kevin},
 title = {{DEM} Simulations of Polydisperse Media: Efficient Contact
          Detection Applied to Investigate the Quasi-Static Limit},
 journal = {Computational Particle Mechanics},
 year = {2020}
@article{Monti2022,
 author = {Monti, Joseph M. and Clemmer, Joel T. and Srivastava,
           Ishan and Silbert, Leonardo E. and Grest, Gary S.
           and Lechman, Jeremy B.},
 title = {Large-scale frictionless jamming with power-law particle
          size distributions},
 journal = {Phys. Rev. E},
 volume = {106}
 issue = {3}
 year = {2022}
}

CITE-CITE-CITE-CITE-CITE-CITE-CITE-CITE-CITE-CITE-CITE-CITE-CITE

PPPM initialization ...
  G vector (1/distance) = 0.29202899
  grid = 32 32 60
  stencil order = 6
  estimated absolute RMS force accuracy = 2.6081413
  estimated relative force accuracy = 0.00785434
  3d grid and FFT values/proc = 1188 64
Generated 3 of 3 mixed pair_coeff terms from arithmetic mixing rule
Step          Temp          KinEng         PotEng         TotEng           Lx             Ly             Lz             Xy             Xz             Yz            Pxx            Pyy            Pzz            Pxy            Pxz            Pyz           Press          Volume
0   0              0              4.2825981      4.2825981      185.0826       88.112         172.5444       0.1165        -18.081        -2.9061         137338.94      121511.81      216523.36     -4296.0544     -4806.9354      2649.0189      158458.04      2813853.7
Loop time of 1.57893 on 1536 procs for 66 steps with 345600 atoms

Minimization stats:
  Stopping criterion = linesearch alpha is zero
  Energy initial, next-to-last, final =
  Force two-norm initial, final = 54425.137 25.497584
  Force max component initial, final = 140.90251 0.10322105
  Final line search alpha, max atom move = 6.5882981e-06 6.8005102e-07
  Iterations, force evaluations = 66 163

dump            1 all custom 10000 0.dump element id mol type x y z
undump          1

#========================= Global setting for NPT simulation
fix             langevin all langevin 350 350 100 32258678 zero yes

#======================== NPT equilibration
velocity        all create 350 1938072 mom yes rot no
fix             1 all nph tri 1 1 100 fixedpoint 86.4504403651684 42.1898969780332 86.2722299426625 flip no

dump            1 all custom 20000 300_equilibrium.*.dump element id mol type x y z
dump_modify     1 element C C H
run             1000000
PPPM initialization ...
  G vector (1/distance) = 0.29202899
  grid = 32 32 60
  stencil order = 6
  estimated absolute RMS force accuracy = 2.6081413
  estimated relative force accuracy = 0.00785434
  3d grid and FFT values/proc = 1188 64
Generated 3 of 3 mixed pair_coeff terms from arithmetic mixing rule
Step          Temp          KinEng         PotEng         TotEng           Lx             Ly             Lz             Xy             Xz             Yz            Pxx            Pyy            Pzz            Pxy            Pxz            Pyz           Press          Volume
66   350            1.0432805     -0.29789588     0.74538462     185.0826       88.112         172.5444       0.1165        -18.081        -2.9061         2769.7751      3126.215       6792.0343     -909.32709     -776.98055      338.64399      4229.3414      2813853.7
Averages over the last 101 of 202 rows, steps 505000 to 1000066:
Temp KinEng PotEng TotEng Lx Ly Lz Xy Xz Yz Pxx Pyy Pzz Pxy Pxz Pyz Press Volume
349.994 1.04326 0.846425 1.88969 190.133 89.921 184.309 -0.334015 -23.8359 -5.32788 22.2977 -3.05847 21.5723 -27.512 10.8457 5.16942 13.6039 3.15112e+06
Loop time of 6672.36 on 1536 procs for 1000000 steps with 345600 atoms

unfix           1
undump          1
unfix		langevin

#======================== HEATING
reset_timestep  0
dump            1 all custom 10000 heating.*.dump element id mol type x y z
dump_modify     1 element C C H
compute         cc1 all chunk/atom molecule
compute         myChunk all com/chunk cc1

fix             1 all nph tri 1 1 100 fixedpoint 83.6094995334816 41.0812545463268 86.272229942685 flip no
fix             2 all ave/time 2 100 5000 v_temp v_sxx v_syy v_szz v_sxz v_syz v_sxy v_pe file output_heating.dat
fix             3 all ave/time 2 100 5000 c_myChunk[*] file center_heating.dat mode vector

fix             langevin all langevin 350 390 100 32258678 zero yes

run             10000000
PPPM initialization ...
  G vector (1/distance) = 0.29202899
  grid = 32 32 60
  stencil order = 6
  estimated absolute RMS force accuracy = 3.3573499
  estimated relative force accuracy = 0.01011056
  3d grid and FFT values/proc = 1188 64
Generated 3 of 3 mixed pair_coeff terms from arithmetic mixing rule
Step          Temp          KinEng         PotEng         TotEng           Lx             Ly             Lz             Xy             Xz             Yz            Pxx            Pyy            Pzz            Pxy            Pxz            Pyz           Press          Volume
0   349.42242      1.0415589      0.84436846     1.8859273      190.15837      89.891973      184.25794     -0.29009641    -23.85279      -5.182091       287.24291      121.05192      3.1111298      30.076435     -86.107094     -94.826499      137.13532      3149652.1
Averages over the last 1001 of 2001 rows, steps 5000000 to 10000000:
Temp KinEng PotEng TotEng Lx Ly Lz Xy Xz Yz Pxx Pyy Pzz Pxy Pxz Pyz Press Volume
380.013 1.13274 0.958423 2.09117 192.138 90.1177 186.551 -0.0932684 -45.5084 27.8125 -3.71659 -10.2486 -9.74821 1.52218 -8.35725 5.97449 -7.90448 3.23017e+06
Loop time of 71694.4 on 1536 procs for 10000000 steps with 345600 atoms

unfix           4  # center.dat
unfix           3  # center.dat
unfix           2  # output.dat
unfix           1
unfix           langevin
undump		1

#======================== NPT equilibration
reset_timestep  0
fix             langevin all langevin 390 390 100 32258678 zero yes
fix             1 all nph tri 1 1 100 fixedpoint 70.7049851454583 61.0770649315096 86.2722299427277 flip no

dump            1 all custom 20000 400_equilibrium.*.dump element id mol type x y z
dump_modify     1 element C C H
run             1000000
PPPM initialization ...
  G vector (1/distance) = 0.29202899
  grid = 32 32 60
  stencil order = 6
  estimated absolute RMS force accuracy = 3.8068716
  estimated relative force accuracy = 0.011464281
  3d grid and FFT values/proc = 1188 64
Generated 3 of 3 mixed pair_coeff terms from arithmetic mixing rule
Step          Temp          KinEng         PotEng         TotEng           Lx             Ly             Lz             Xy             Xz             Yz            Pxx            Pyy            Pzz            Pxy            Pxz            Pyz           Press          Volume
0   390.12526      1.1628859      0.99086968     2.1537556      192.73375      90.194195      187.17908     -0.13560722    -50.14179       34.792093     -65.919645     -32.420287     -214.96444      179.78173     -162.52139      88.476045     -104.43479      3253821.1
Averages over the last 101 of 201 rows, steps 500000 to 1000000:
Temp KinEng PotEng TotEng Lx Ly Lz Xy Xz Yz Pxx Pyy Pzz Pxy Pxz Pyz Press Volume
390.047 1.16265 0.993321 2.15597 192.561 90.1985 187.131 -0.0241316 -49.4724 35.3823 8.58797 -33.5003 -6.92091 -18.8094 11.8018 15.74 -10.6111 3.25023e+06
Loop time of 6419.25 on 1536 procs for 1000000 steps with 345600 atoms

unfix           1
undump          1
unfix		langevin
#======================== Cooling
reset_timestep  0
dump            1 all custom 10000 cooling.*.dump element id mol type x y z
dump_modify     1 element C C H
compute         cc2 all chunk/atom molecule
compute         myChunk2 all com/chunk cc2

fix             1 all nph tri 1 1 100 fixedpoint 70.9741187328343 60.9888977158027 86.2722299427396 flip no
fix             2 all ave/time 2 100 5000 v_temp v_sxx v_syy v_szz v_sxz v_syz v_sxy v_pe file output_cooling.dat
fix             3 all ave/time 2 100 5000 c_myChunk2[*] file center_cooling.dat mode vector

fix             langevin all langevin 390 350 100 32258678 zero yes

run             10000000
PPPM initialization ...
  G vector (1/distance) = 0.29202899
  grid = 32 32 60
  stencil order = 6
  estimated absolute RMS force accuracy = 3.7799416
  estimated relative force accuracy = 0.011383182
  3d grid and FFT values/proc = 1188 64
Generated 3 of 3 mixed pair_coeff terms from arithmetic mixing rule
Step          Temp          KinEng         PotEng         TotEng           Lx             Ly             Lz             Xy             Xz             Yz            Pxx            Pyy            Pzz            Pxy            Pxz            Pyz           Press          Volume
0   390.06537      1.1627074      0.99133481     2.1540422      192.58736      90.180324      187.05577      0.043666634   -49.742928      34.610408     -112.43055      99.479623      54.988599     -246.50972     -40.606896     -60.714988      14.012557      3248708
Averages over the last 1001 of 2001 rows, steps 5000000 to 10000000:
Temp KinEng PotEng TotEng Lx Ly Lz Xy Xz Yz Pxx Pyy Pzz Pxy Pxz Pyz Press Volume
360.048 1.07323 0.880974 1.95421 190.548 90.0474 184.919 -0.319318 -69.3042 58.7225 -9.15988 1.56445 3.43637 -2.08815 -3.59453 0.658124 -1.38636 3.17294e+06
Loop time of 72470.5 on 1536 procs for 10000000 steps with 345600 atoms

unfix           4  # center.dat
unfix           3  # center.dat
unfix           2  # output.dat
unfix           1
unfix           langevin
undump		1

#======================== NPT equilibration
reset_timestep  0
fix             langevin all langevin 350 350 100 32258678 zero yes
fix             1 all nph tri 1 1 100 fixedpoint 58.7870866401059 75.1480296514309 86.272229942674 flip no

dump            1 all custom 20000 cooling_equilibrium.*.dump element id mol type x y z
dump_modify     1 element C C H
run             1000000
PPPM initialization ...
  G vector (1/distance) = 0.29202899
  grid = 32 32 60
  stencil order = 6
  estimated absolute RMS force accuracy = 3.3438704
  estimated relative force accuracy = 0.010069966
  3d grid and FFT values/proc = 1188 64
Generated 3 of 3 mixed pair_coeff terms from arithmetic mixing rule
Step          Temp          KinEng         PotEng         TotEng           Lx             Ly             Lz             Xy             Xz             Yz            Pxx            Pyy            Pzz            Pxy            Pxz            Pyz           Press          Volume
0   350.47468      1.0446954      0.84262492     1.8873203      190.07604      89.978921      184.42143     -0.27890929    -73.149354      62.851366      135.08454      48.417826     -78.925293     -46.607721      24.267745      9.8454872      34.859025      3154129.7
Averages over the last 101 of 201 rows, steps 500000 to 1000000:
Temp KinEng PotEng TotEng Lx Ly Lz Xy Xz Yz Pxx Pyy Pzz Pxy Pxz Pyz Press Volume
349.986 1.04324 0.844636 1.88788 190.031 89.9742 184.25 -0.369133 -73.2533 62.7334 -31.5315 -5.46654 -11.709 -6.71572 -0.641892 -4.02932 -16.2357 3.15029e+06
Loop time of 8240.97 on 1536 procs for 1000000 steps with 345600 atoms

unfix           1
undump          1
unfix		langevin

######################################
# SIMULATION DONE
